Version 4
SHEET 1 1224 680
WIRE -1536 -16 -1584 -16
WIRE -1408 -16 -1456 -16
WIRE -944 -16 -1312 -16
WIRE -1584 80 -1584 -16
WIRE -1408 80 -1408 -16
WIRE -1312 80 -1312 -16
WIRE -1104 80 -1168 80
WIRE -944 80 -944 -16
WIRE -944 80 -1040 80
WIRE -864 80 -944 80
WIRE -720 80 -800 80
WIRE -1168 160 -1168 80
WIRE -1168 160 -1232 160
WIRE -720 160 -720 80
WIRE -496 160 -720 160
WIRE -304 160 -496 160
WIRE -96 160 -304 160
WIRE -64 160 -96 160
WIRE 304 160 160 160
WIRE 496 160 304 160
WIRE 944 160 496 160
WIRE 1168 160 944 160
WIRE -1168 240 -1168 160
WIRE -1104 240 -1168 240
WIRE -944 240 -1040 240
WIRE -864 240 -944 240
WIRE -720 240 -720 160
WIRE -720 240 -800 240
WIRE 64 256 32 256
WIRE -1584 288 -1584 160
WIRE -1488 288 -1584 288
WIRE -1408 288 -1408 160
WIRE -1408 288 -1488 288
WIRE -1312 288 -1312 160
WIRE -944 288 -944 240
WIRE -944 288 -1312 288
WIRE -304 288 -304 160
WIRE 496 288 496 160
WIRE 944 288 944 160
WIRE -496 304 -496 160
WIRE 32 304 32 256
WIRE 240 304 32 304
WIRE 304 304 304 240
WIRE 304 304 240 304
WIRE 1168 304 1168 160
WIRE -1488 336 -1488 288
WIRE 240 400 240 304
WIRE 192 432 144 432
WIRE -1232 512 -1232 160
WIRE -576 512 -1232 512
WIRE -496 512 -496 368
WIRE -496 512 -576 512
WIRE -304 512 -304 368
WIRE -304 512 -496 512
WIRE 144 512 144 432
WIRE 144 512 -304 512
WIRE 144 560 144 512
WIRE 240 560 240 480
WIRE 240 560 144 560
WIRE 496 560 496 352
WIRE 496 560 240 560
WIRE 944 560 944 352
WIRE 944 560 496 560
WIRE 1168 560 1168 384
WIRE 1168 560 944 560
WIRE -576 576 -576 512
FLAG -576 576 0
FLAG -1488 336 0
SYMBOL voltage -1584 64 R0
WINDOW 123 0 0 Left 0
WINDOW 39 24 124 Left 2
SYMATTR InstName V1
SYMATTR Value SINE(0 220 50)
SYMBOL ind2 -1424 64 R0
WINDOW 0 -34 29 Left 2
WINDOW 3 -22 79 Left 2
SYMATTR InstName L1
SYMATTR Value 160µ
SYMATTR Type ind
SYMBOL ind2 -1296 176 R180
WINDOW 0 -34 85 Left 2
WINDOW 3 -29 35 Left 2
SYMATTR InstName L2
SYMATTR Value 10µ
SYMATTR Type ind
SYMBOL diode -864 256 R270
WINDOW 0 32 32 VTop 2
WINDOW 3 0 32 VBottom 2
SYMATTR InstName D1
SYMATTR Value 1N4007
SYMBOL res -320 272 R0
SYMATTR InstName R1
SYMATTR Value 1k
SYMBOL PowerProducts\\LT317A 32 160 R0
SYMATTR InstName U1
SYMBOL res 288 144 R0
SYMATTR InstName R2
SYMATTR Value 100
SYMBOL cap 928 288 R0
SYMATTR InstName C1
SYMATTR Value 1000µ
SYMBOL pot 256 496 R180
SYMATTR InstName U2
SYMATTR Value Rtot=1.75K wiper=0
SYMBOL diode -864 96 R270
WINDOW 0 32 32 VTop 2
WINDOW 3 0 32 VBottom 2
SYMATTR InstName D2
SYMATTR Value 1N4007
SYMBOL diode -1104 96 R270
WINDOW 0 32 32 VTop 2
WINDOW 3 0 32 VBottom 2
SYMATTR InstName D3
SYMATTR Value 1N4007
SYMBOL diode -1104 256 R270
WINDOW 0 32 32 VTop 2
WINDOW 3 0 32 VBottom 2
SYMATTR InstName D4
SYMATTR Value 1N4007
SYMBOL cap -512 304 R0
SYMATTR InstName C2
SYMATTR Value 2200µ
SYMBOL zener 512 352 R180
WINDOW 0 24 64 Left 2
WINDOW 3 24 0 Left 2
SYMATTR InstName D5
SYMATTR Value EDZV18B
SYMATTR Description Diode
SYMATTR Type diode
SYMBOL res 1152 288 R0
SYMATTR InstName R3
SYMATTR Value 1k
SYMBOL res -1552 -32 M90
WINDOW 0 0 56 VBottom 2
WINDOW 3 32 56 VTop 2
SYMATTR InstName R4
SYMATTR Value 100µ
TEXT 264 640 Left 2 !.include pot.sub
TEXT -1392 -48 Left 2 !K L1 L2 1
TEXT -440 -8 Left 2 !.tran 100ms
